<?xml version="1.0" encoding="UTF-8"?>

<!-- generated on Sat May  1 15:40:59 2021 by Eclipse SUMO netconvert Version 1.9.0
<configuration xmlns:xsi="http://www.w3.org/2001/XMLSchema-instance" xsi:noNamespaceSchemaLocation="http://sumo.dlr.de/xsd/netconvertConfiguration.xsd">

    <input>
        <osm-files value="map.osm"/>
    </input>

    <output>
        <output-file value="map.net.xml"/>
    </output>

    <projection>
        <proj.utm value="true"/>
    </projection>

    <report>
        <aggregate-warnings value="5"/>
    </report>

</configuration>
-->

<net version="1.9" junctionCornerDetail="5" limitTurnSpeed="5.50" xmlns:xsi="http://www.w3.org/2001/XMLSchema-instance" xsi:noNamespaceSchemaLocation="http://sumo.dlr.de/xsd/net_file.xsd">

    <location netOffset="-437747.85,-4407791.13" convBoundary="0.00,0.00,1682.87,1368.57" origBoundary="116.272615,39.817945,116.292239,39.830225" projParameter="+proj=utm +zone=50 +ellps=WGS84 +datum=WGS84 +units=m +no_defs"/>

    <type id="highway.bridleway" priority="1" numLanes="1" speed="2.78" allow="pedestrian" oneway="1" width="2.00"/>
    <type id="highway.bus_guideway" priority="1" numLanes="1" speed="27.78" allow="bus" oneway="1"/>
    <type id="highway.cycleway" priority="1" numLanes="1" speed="8.33" allow="bicycle" oneway="0" width="1.00"/>
    <type id="highway.footway" priority="1" numLanes="1" speed="2.78" allow="pedestrian" oneway="1" width="2.00"/>
    <type id="highway.ford" priority="1" numLanes="1" speed="2.78" allow="army" oneway="0"/>
    <type id="highway.living_street" priority="2" numLanes="1" speed="2.78" disallow="tram rail_urban rail rail_electric rail_fast ship" oneway="0"/>
    <type id="highway.motorway" priority="14" numLanes="2" speed="39.44" allow="private emergency authority army vip passenger hov taxi bus coach delivery truck trailer motorcycle evehicle custom1 custom2" oneway="1"/>
    <type id="highway.motorway_link" priority="9" numLanes="1" speed="22.22" allow="private emergency authority army vip passenger hov taxi bus coach delivery truck trailer motorcycle evehicle custom1 custom2" oneway="1"/>
    <type id="highway.path" priority="1" numLanes="1" speed="2.78" allow="pedestrian bicycle" oneway="0" width="2.00"/>
    <type id="highway.pedestrian" priority="1" numLanes="1" speed="2.78" allow="pedestrian" oneway="1" width="2.00"/>
    <type id="highway.primary" priority="12" numLanes="2" speed="27.78" disallow="tram rail_urban rail rail_electric rail_fast ship" oneway="0"/>
    <type id="highway.primary_link" priority="7" numLanes="1" speed="22.22" disallow="tram rail_urban rail rail_electric rail_fast ship" oneway="0"/>
    <type id="highway.raceway" priority="15" numLanes="2" speed="83.33" allow="vip" oneway="0"/>
    <type id="highway.residential" priority="3" numLanes="1" speed="13.89" disallow="tram rail_urban rail rail_electric rail_fast ship" oneway="0"/>
    <type id="highway.secondary" priority="11" numLanes="1" speed="27.78" disallow="tram rail_urban rail rail_electric rail_fast ship" oneway="0"/>
    <type id="highway.secondary_link" priority="6" numLanes="1" speed="22.22" disallow="tram rail_urban rail rail_electric rail_fast ship" oneway="0"/>
    <type id="highway.service" priority="1" numLanes="1" speed="5.56" allow="pedestrian delivery bicycle" oneway="0"/>
    <type id="highway.stairs" priority="1" numLanes="1" speed="1.39" allow="pedestrian" oneway="1" width="2.00"/>
    <type id="highway.step" priority="1" numLanes="1" speed="1.39" allow="pedestrian" oneway="1" width="2.00"/>
    <type id="highway.steps" priority="1" numLanes="1" speed="1.39" allow="pedestrian" oneway="1" width="2.00"/>
    <type id="highway.tertiary" priority="10" numLanes="1" speed="22.22" disallow="tram rail_urban rail rail_electric rail_fast ship" oneway="0"/>
    <type id="highway.tertiary_link" priority="5" numLanes="1" speed="22.22" disallow="tram rail_urban rail rail_electric rail_fast ship" oneway="0"/>
    <type id="highway.track" priority="1" numLanes="1" speed="5.56" allow="pedestrian motorcycle moped bicycle" oneway="0"/>
    <type id="highway.trunk" priority="13" numLanes="2" speed="27.78" disallow="pedestrian bicycle tram rail_urban rail rail_electric rail_fast ship" oneway="0"/>
    <type id="highway.trunk_link" priority="8" numLanes="1" speed="22.22" disallow="pedestrian bicycle tram rail_urban rail rail_electric rail_fast ship" oneway="0"/>
    <type id="highway.unclassified" priority="4" numLanes="1" speed="13.89" disallow="tram rail_urban rail rail_electric rail_fast ship" oneway="0"/>
    <type id="highway.unsurfaced" priority="1" numLanes="1" speed="8.33" disallow="tram rail_urban rail rail_electric rail_fast ship" oneway="0"/>
    <type id="railway.highspeed" priority="21" numLanes="1" speed="69.44" allow="rail_fast" oneway="1"/>
    <type id="railway.light_rail" priority="19" numLanes="1" speed="27.78" allow="rail_urban" oneway="1"/>
    <type id="railway.preserved" priority="16" numLanes="1" speed="27.78" allow="rail" oneway="1"/>
    <type id="railway.rail" priority="20" numLanes="1" speed="44.44" allow="rail" oneway="1"/>
    <type id="railway.subway" priority="18" numLanes="1" speed="27.78" allow="rail_urban" oneway="1"/>
    <type id="railway.tram" priority="17" numLanes="1" speed="13.89" allow="tram" oneway="1"/>

    <edge id=":-101923_0" function="internal">
        <lane id=":-101923_0_0" index="0" disallow="tram rail_urban rail rail_electric rail_fast ship" speed="16.67" length="21.42" shape="1190.26,1272.08 1168.91,1273.84"/>
        <lane id=":-101923_0_1" index="1" disallow="tram rail_urban rail rail_electric rail_fast ship" speed="16.67" length="21.42" shape="1189.99,1268.89 1168.65,1270.65"/>
    </edge>
    <edge id=":-101923_2" function="internal">
        <lane id=":-101923_2_0" index="0" disallow="tram rail_urban rail rail_electric rail_fast ship" speed="8.27" length="18.77" shape="1189.99,1268.89 1184.09,1268.68 1180.24,1266.93 1178.44,1263.62 1178.69,1258.76"/>
    </edge>
    <edge id=":-101923_3" function="internal">
        <lane id=":-101923_3_0" index="0" disallow="tram rail_urban rail rail_electric rail_fast ship" speed="3.65" length="4.67" shape="1189.99,1268.89 1188.73,1268.19 1188.27,1267.42 1188.60,1266.59 1189.73,1265.70"/>
    </edge>
    <edge id=":-101923_4" function="internal">
        <lane id=":-101923_4_0" index="0" disallow="tram rail_urban rail rail_electric rail_fast ship" speed="5.95" length="9.09" shape="1184.94,1260.18 1184.72,1262.78 1185.45,1264.57 1187.12,1265.54 1189.73,1265.70"/>
    </edge>
    <edge id=":-101923_5" function="internal">
        <lane id=":-101923_5_0" index="0" disallow="tram rail_urban rail rail_electric rail_fast ship" speed="11.36" length="22.72" shape="1184.94,1260.18 1182.87,1265.75 1179.50,1269.88 1174.85,1272.58 1168.91,1273.84"/>
        <lane id=":-101923_5_1" index="1" disallow="tram rail_urban rail rail_electric rail_fast ship" speed="10.32" length="18.64" shape="1181.82,1259.47 1180.12,1264.03 1177.36,1267.41 1173.53,1269.62 1168.65,1270.65"/>
    </edge>
    <edge id=":-101923_7" function="internal">
        <lane id=":-101923_7_0" index="0" disallow="tram rail_urban rail rail_electric rail_fast ship" speed="3.65" length="4.67" shape="1181.82,1259.47 1180.77,1260.46 1179.90,1260.68 1179.21,1260.11 1178.69,1258.76"/>
    </edge>
    <edge id=":-101923_8" function="internal">
        <lane id=":-101923_8_0" index="0" disallow="tram rail_urban rail rail_electric rail_fast ship" speed="8.58" length="12.63" shape="1168.38,1267.46 1170.76,1266.72 1172.76,1264.90 1174.36,1262.01 1175.57,1258.06"/>
    </edge>
    <edge id=":-101923_9" function="internal">
        <lane id=":-101923_9_0" index="0" disallow="tram rail_urban rail rail_electric rail_fast ship" speed="16.67" length="21.42" shape="1168.38,1267.46 1189.73,1265.70"/>
    </edge>
    <edge id=":-101923_10" function="internal">
        <lane id=":-101923_10_0" index="0" disallow="tram rail_urban rail rail_electric rail_fast ship" speed="3.65" length="4.67" shape="1168.38,1267.46 1169.64,1268.16 1170.11,1268.93 1169.78,1269.76 1168.65,1270.65"/>
    </edge>
    <edge id=":1272252111_0" function="internal">
        <lane id=":1272252111_0_0" index="0" disallow="tram rail_urban rail rail_electric rail_fast ship" speed="27.78" length="0.30" shape="977.68,656.75 977.67,657.04"/>
        <lane id=":1272252111_0_1" index="1" disallow="tram rail_urban rail rail_electric rail_fast ship" speed="27.78" length="0.30" shape="974.48,656.63 974.47,656.93"/>
    </edge>
    <edge id=":1272252115_0" function="internal">
        <lane id=":1272252115_0_0" index="0" disallow="tram rail_urban rail rail_electric rail_fast ship" speed="9.85" length="16.81" shape="1286.79,940.87 1282.05,941.54 1278.33,943.22 1275.60,945.93 1273.89,949.65"/>
    </edge>
    <edge id=":1272252115_1" function="internal">
        <lane id=":1272252115_1_0" index="0" disallow="tram rail_urban rail rail_electric rail_fast ship" speed="27.78" length="26.45" shape="1286.79,940.87 1260.26,941.03"/>
        <lane id=":1272252115_1_1" index="1" disallow="tram rail_urban rail rail_electric rail_fast ship" speed="27.78" length="26.45" shape="1286.69,937.67 1260.33,937.83"/>
    </edge>
    <edge id=":1272252115_3" function="internal">
        <lane id=":1272252115_3_0" index="0" disallow="tram rail_urban rail rail_electric rail_fast ship" speed="8.82" length="8.30" shape="1286.69,937.67 1279.89,936.94 1278.68,936.12"/>
    </edge>
    <edge id=":1272252115_4" function="internal">
        <lane id=":1272252115_4_0" index="0" disallow="tram rail_urban rail rail_electric rail_fast ship" speed="3.65" length="2.34" shape="1286.69,937.67 1285.47,936.90 1285.04,936.12"/>
    </edge>
    <edge id=":1272252115_20" function="internal">
        <lane id=":1272252115_20_0" index="0" disallow="tram rail_urban rail rail_electric rail_fast ship" speed="8.82" length="14.93" shape="1278.68,936.12 1275.94,934.25 1274.86,929.60 1276.64,923.00"/>
    </edge>
    <edge id=":1272252115_21" function="internal">
        <lane id=":1272252115_21_0" index="0" disallow="tram rail_urban rail rail_electric rail_fast ship" speed="3.65" length="2.34" shape="1285.04,936.12 1285.42,935.31 1286.59,934.47"/>
    </edge>
    <edge id=":1272252115_5" function="internal">
        <lane id=":1272252115_5_0" index="0" disallow="tram rail_urban rail rail_electric rail_fast ship" speed="5.78" length="9.16" shape="1282.53,925.49 1281.83,928.09 1282.26,929.92 1283.81,930.98 1286.49,931.27"/>
    </edge>
    <edge id=":1272252115_6" function="internal">
        <lane id=":1272252115_6_0" index="0" disallow="tram rail_urban rail rail_electric rail_fast ship" speed="27.78" length="25.87" shape="1282.53,925.49 1279.93,931.80 1277.78,937.42 1275.85,943.11 1273.89,949.65"/>
        <lane id=":1272252115_6_1" index="1" disallow="tram rail_urban rail rail_electric rail_fast ship" speed="27.78" length="25.87" shape="1279.58,924.24 1276.96,930.61 1274.77,936.35 1272.80,942.18 1270.81,948.77"/>
    </edge>
    <edge id=":1272252115_8" function="internal">
        <lane id=":1272252115_8_0" index="0" disallow="tram rail_urban rail rail_electric rail_fast ship" speed="12.37" length="25.16" shape="1279.58,924.24 1276.18,930.30 1271.84,934.58 1266.55,937.09 1260.33,937.83"/>
    </edge>
    <edge id=":1272252115_9" function="internal">
        <lane id=":1272252115_9_0" index="0" disallow="tram rail_urban rail rail_electric rail_fast ship" speed="3.65" length="4.67" shape="1279.58,924.24 1278.38,925.03 1277.49,925.09 1276.91,924.41 1276.64,923.00"/>
    </edge>
    <edge id=":1272252115_10" function="internal">
        <lane id=":1272252115_10_0" index="0" disallow="tram rail_urban rail rail_electric rail_fast ship" speed="10.38" length="17.49" shape="1260.47,931.43 1264.68,930.90 1268.29,929.11 1271.30,926.06 1273.69,921.75"/>
    </edge>
    <edge id=":1272252115_11" function="internal">
        <lane id=":1272252115_11_0" index="0" disallow="tram rail_urban rail rail_electric rail_fast ship" speed="27.78" length="26.11" shape="1260.47,931.43 1286.49,931.27"/>
        <lane id=":1272252115_11_1" index="1" disallow="tram rail_urban rail rail_electric rail_fast ship" speed="27.78" length="26.11" shape="1260.40,934.63 1286.59,934.47"/>
    </edge>
    <edge id=":1272252115_13" function="internal">
        <lane id=":1272252115_13_0" index="0" disallow="tram rail_urban rail rail_electric rail_fast ship" speed="8.93" length="7.08" shape="1260.40,934.63 1266.44,935.63 1267.22,936.19"/>
    </edge>
    <edge id=":1272252115_14" function="internal">
        <lane id=":1272252115_14_0" index="0" disallow="tram rail_urban rail rail_electric rail_fast ship" speed="3.65" length="2.34" shape="1260.40,934.63 1261.58,935.46 1261.96,936.27"/>
    </edge>
    <edge id=":1272252115_22" function="internal">
        <lane id=":1272252115_22_0" index="0" disallow="tram rail_urban rail rail_electric rail_fast ship" speed="8.93" length="14.40" shape="1267.22,936.19 1270.19,938.32 1271.65,942.70 1270.81,948.77"/>
    </edge>
    <edge id=":1272252115_23" function="internal">
        <lane id=":1272252115_23_0" index="0" disallow="tram rail_urban rail rail_electric rail_fast ship" speed="3.65" length="2.34" shape="1261.96,936.27 1261.54,937.06 1260.33,937.83"/>
    </edge>
    <edge id=":1272252115_15" function="internal">
        <lane id=":1272252115_15_0" index="0" disallow="tram rail_urban rail rail_electric rail_fast ship" speed="6.02" length="9.07" shape="1264.66,947.00 1265.01,944.44 1264.40,942.59 1262.81,941.45 1260.26,941.03"/>
    </edge>
    <edge id=":1272252115_16" function="internal">
        <lane id=":1272252115_16_0" index="0" disallow="tram rail_urban rail rail_electric rail_fast ship" speed="27.78" length="26.65" shape="1264.66,947.00 1266.69,940.30 1268.75,934.23 1271.02,928.23 1273.69,921.75"/>
        <lane id=":1272252115_16_1" index="1" disallow="tram rail_urban rail rail_electric rail_fast ship" speed="27.78" length="26.65" shape="1267.74,947.89 1269.74,941.24 1271.76,935.29 1273.99,929.42 1276.64,923.00"/>
    </edge>
    <edge id=":1272252115_18" function="internal">
        <lane id=":1272252115_18_0" index="0" disallow="tram rail_urban rail rail_electric rail_fast ship" speed="11.90" length="24.94" shape="1267.74,947.89 1270.31,942.19 1274.31,938.06 1279.74,935.48 1286.59,934.47"/>
    </edge>
    <edge id=":1272252115_19" function="internal">
        <lane id=":1272252115_19_0" index="0" disallow="tram rail_urban rail rail_electric rail_fast ship" speed="3.65" length="4.67" shape="1267.74,947.89 1268.84,946.95 1269.71,946.79 1270.37,947.39 1270.81,948.77"/>
    </edge>
    <edge id=":1272252116_0" function="internal">
        <lane id=":1272252116_0_0" index="0" disallow="tram rail_urban rail rail_electric rail_fast ship" speed="6.63" length="9.22" shape="1297.12,81.94 1294.68,82.33 1292.93,83.44 1291.87,85.27 1291.49,87.81"/>
    </edge>
    <edge id=":1272252116_1" function="internal">
        <lane id=":1272252116_1_0" index="0" disallow="tram rail_urban rail rail_electric rail_fast ship" speed="27.78" length="14.60" shape="1297.12,81.94 1282.50,82.07"/>
        <lane id=":1272252116_1_1" index="1" disallow="tram rail_urban rail rail_electric rail_fast ship" speed="27.78" length="14.60" shape="1297.07,78.74 1282.50,78.87"/>
    </edge>
    <edge id=":1272252116_3" function="internal">
        <lane id=":1272252116_3_0" index="0" disallow="tram rail_urban rail rail_electric rail_fast ship" speed="3.65" length="2.34" shape="1297.07,78.74 1295.86,77.95 1295.45,77.16"/>
    </edge>
    <edge id=":1272252116_11" function="internal">
        <lane id=":1272252116_11_0" index="0" disallow="tram rail_urban rail rail_electric rail_fast ship" speed="3.65" length="2.34" shape="1295.45,77.16 1295.84,76.35 1297.03,75.54"/>
    </edge>
    <edge id=":1272252116_4" function="internal">
        <lane id=":1272252116_4_0" index="0" disallow="tram rail_urban rail rail_electric rail_fast ship" speed="27.78" length="14.50" shape="1282.51,72.47 1296.98,72.34"/>
        <lane id=":1272252116_4_1" index="1" disallow="tram rail_urban rail rail_electric rail_fast ship" speed="27.78" length="14.50" shape="1282.51,75.67 1297.03,75.54"/>
    </edge>
    <edge id=":1272252116_6" function="internal">
        <lane id=":1272252116_6_0" index="0" disallow="tram rail_urban rail rail_electric rail_fast ship" speed="8.14" length="3.73" shape="1282.51,75.67 1285.09,76.43 1285.74,77.24"/>
    </edge>
    <edge id=":1272252116_7" function="internal">
        <lane id=":1272252116_7_0" index="0" disallow="tram rail_urban rail rail_electric rail_fast ship" speed="3.65" length="2.34" shape="1282.51,75.67 1283.71,76.47 1284.10,77.27"/>
    </edge>
    <edge id=":1272252116_12" function="internal">
        <lane id=":1272252116_12_0" index="0" disallow="tram rail_urban rail rail_electric rail_fast ship" speed="8.14" length="11.09" shape="1285.74,77.24 1286.92,78.70 1287.98,82.48 1288.29,87.77"/>
    </edge>
    <edge id=":1272252116_13" function="internal">
        <lane id=":1272252116_13_0" index="0" disallow="tram rail_urban rail rail_electric rail_fast ship" speed="3.65" length="2.34" shape="1284.10,77.27 1283.70,78.07 1282.50,78.87"/>
    </edge>
    <edge id=":1272252116_8" function="internal">
        <lane id=":1272252116_8_0" index="0" disallow="tram rail_urban rail rail_electric rail_fast ship" speed="5.29" length="5.65" shape="1281.89,87.69 1282.50,82.07"/>
    </edge>
    <edge id=":1272252116_9" function="internal">
        <lane id=":1272252116_9_0" index="0" disallow="tram rail_urban rail rail_electric rail_fast ship" speed="9.35" length="19.35" shape="1285.09,87.73 1285.89,82.46 1288.15,78.67 1291.86,76.36 1297.03,75.54"/>
    </edge>
    <edge id=":1272252116_10" function="internal">
        <lane id=":1272252116_10_0" index="0" disallow="tram rail_urban rail rail_electric rail_fast ship" speed="3.65" length="4.67" shape="1285.09,87.73 1285.90,86.54 1286.71,86.15 1287.50,86.56 1288.29,87.77"/>
    </edge>
    <edge id=":1272252122_0" function="internal">
        <lane id=":1272252122_0_0" index="0" disallow="tram rail_urban rail rail_electric rail_fast ship" speed="16.67" length="20.46" shape="1608.27,384.59 1606.89,404.91"/>
        <lane id=":1272252122_0_1" index="1" disallow="tram rail_urban rail rail_electric rail_fast ship" speed="16.67" length="20.46" shape="1605.08,384.28 1603.70,404.79"/>
    </edge>
    <edge id=":1272252122_2" function="internal">
        <lane id=":1272252122_2_0" index="0" disallow="tram rail_urban rail rail_electric rail_fast ship" speed="8.97" length="16.94" shape="1605.08,384.28 1604.04,389.34 1602.03,392.94 1599.06,395.07 1595.12,395.75"/>
    </edge>
    <edge id=":1272252122_3" function="internal">
        <lane id=":1272252122_3_0" index="0" disallow="tram rail_urban rail rail_electric rail_fast ship" speed="3.65" length="4.67" shape="1605.08,384.28 1604.17,385.40 1603.33,385.72 1602.58,385.25 1601.90,383.98"/>
    </edge>
    <edge id=":1272252122_4" function="internal">
        <lane id=":1272252122_4_0" index="0" disallow="tram rail_urban rail rail_electric rail_fast ship" speed="6.89" length="9.61" shape="1595.20,389.35 1597.93,389.04 1599.96,388.04 1601.28,386.36 1601.90,383.98"/>
    </edge>
    <edge id=":1272252122_5" function="internal">
        <lane id=":1272252122_5_0" index="0" disallow="tram rail_urban rail rail_electric rail_fast ship" speed="8.62" length="17.01" shape="1595.16,392.55 1599.08,393.36 1601.80,395.66 1603.35,399.47 1603.70,404.79"/>
    </edge>
    <edge id=":1272252122_6" function="internal">
        <lane id=":1272252122_6_0" index="0" disallow="tram rail_urban rail rail_electric rail_fast ship" speed="3.65" length="4.67" shape="1595.16,392.55 1596.35,393.36 1596.74,394.17 1596.33,394.96 1595.12,395.75"/>
    </edge>
    <edge id=":1272252122_7" function="internal">
        <lane id=":1272252122_7_0" index="0" disallow="tram rail_urban rail rail_electric rail_fast ship" speed="6.45" length="9.03" shape="1600.50,404.66 1600.25,402.19 1599.26,400.41 1597.54,399.33 1595.08,398.95"/>
    </edge>
    <edge id=":1272252122_8" function="internal">
        <lane id=":1272252122_8_0" index="0" disallow="tram rail_urban rail rail_electric rail_fast ship" speed="16.67" length="20.73" shape="1600.50,404.66 1601.90,383.98"/>
    </edge>
    <edge id=":1272252122_9" function="internal">
        <lane id=":1272252122_9_0" index="0" disallow="tram rail_urban rail rail_electric rail_fast ship" speed="3.65" length="4.67" shape="1600.50,404.66 1601.35,403.49 1602.16,403.12 1602.95,403.56 1603.70,404.79"/>
    </edge>
    <edge id=":1325478692_0" function="internal">
        <lane id=":1325478692_0_0" index="0" disallow="tram rail_urban rail rail_electric rail_fast ship" speed="6.50" length="9.08" shape="1288.40,655.73 1285.94,656.02 1284.17,657.04 1283.08,658.78 1282.69,661.25"/>
    </edge>
    <edge id=":1325478692_1" function="internal">
        <lane id=":1325478692_1_0" index="0" disallow="tram rail_urban rail rail_electric rail_fast ship" speed="27.78" length="20.89" shape="1288.40,655.73 1267.56,655.43"/>
        <lane id=":1325478692_1_1" index="1" disallow="tram rail_urban rail rail_electric rail_fast ship" speed="27.78" length="20.89" shape="1288.49,652.54 1267.56,652.23"/>
    </edge>
    <edge id=":1325478692_3" function="internal">
        <lane id=":1325478692_3_0" index="0" disallow="tram rail_urban rail rail_electric rail_fast ship" speed="9.29" length="19.38" shape="1288.49,652.54 1283.23,651.65 1279.51,649.31 1277.32,645.52 1276.67,640.28"/>
    </edge>
    <edge id=":1325478692_4" function="internal">
        <lane id=":1325478692_4_0" index="0" disallow="tram rail_urban rail rail_electric rail_fast ship" speed="3.65" length="4.67" shape="1288.49,652.54 1287.31,651.70 1286.93,650.89 1287.36,650.10 1288.58,649.34"/>
    </edge>
    <edge id=":1325478692_5" function="internal">
        <lane id=":1325478692_5_0" index="0" disallow="tram rail_urban rail rail_electric rail_fast ship" speed="6.56" length="9.12" shape="1283.07,640.40 1283.38,642.85 1284.41,644.63 1286.18,645.72 1288.66,646.14"/>
    </edge>
    <edge id=":1325478692_6" function="internal">
        <lane id=":1325478692_6_0" index="0" disallow="tram rail_urban rail rail_electric rail_fast ship" speed="27.78" length="20.86" shape="1283.07,640.40 1282.69,661.25"/>
        <lane id=":1325478692_6_1" index="1" disallow="tram rail_urban rail rail_electric rail_fast ship" speed="27.78" length="20.86" shape="1279.87,640.34 1279.49,661.19"/>
    </edge>
    <edge id=":1325478692_8" function="internal">
        <lane id=":1325478692_8_0" index="0" disallow="tram rail_urban rail rail_electric rail_fast ship" speed="9.30" length="6.99" shape="1279.87,640.34 1279.01,645.62 1278.15,647.01"/>
    </edge>
    <edge id=":1325478692_9" function="internal">
        <lane id=":1325478692_9_0" index="0" disallow="tram rail_urban rail rail_electric rail_fast ship" speed="3.65" length="2.34" shape="1279.87,640.34 1279.05,641.52 1278.24,641.91"/>
    </edge>
    <edge id=":1325478692_20" function="internal">
        <lane id=":1325478692_20_0" index="0" disallow="tram rail_urban rail rail_electric rail_fast ship" speed="9.30" length="12.52" shape="1278.15,647.01 1276.68,649.36 1272.86,651.57 1267.56,652.23"/>
    </edge>
    <edge id=":1325478692_21" function="internal">
        <lane id=":1325478692_21_0" index="0" disallow="tram rail_urban rail rail_electric rail_fast ship" speed="3.65" length="2.34" shape="1278.24,641.91 1277.45,641.49 1276.67,640.28"/>
    </edge>
    <edge id=":1325478692_10" function="internal">
        <lane id=":1325478692_10_0" index="0" disallow="tram rail_urban rail rail_electric rail_fast ship" speed="6.59" length="9.29" shape="1267.56,645.83 1270.10,645.51 1271.94,644.48 1273.06,642.71 1273.47,640.22"/>
    </edge>
    <edge id=":1325478692_11" function="internal">
        <lane id=":1325478692_11_0" index="0" disallow="tram rail_urban rail rail_electric rail_fast ship" speed="27.78" length="21.06" shape="1267.56,645.83 1288.66,646.14"/>
        <lane id=":1325478692_11_1" index="1" disallow="tram rail_urban rail rail_electric rail_fast ship" speed="27.78" length="21.06" shape="1267.56,649.03 1288.58,649.34"/>
    </edge>
    <edge id=":1325478692_13" function="internal">
        <lane id=":1325478692_13_0" index="0" disallow="tram rail_urban rail rail_electric rail_fast ship" speed="9.28" length="19.43" shape="1267.56,649.03 1272.86,649.87 1276.61,652.18 1278.82,655.95 1279.49,661.19"/>
    </edge>
    <edge id=":1325478692_14" function="internal">
        <lane id=":1325478692_14_0" index="0" disallow="tram rail_urban rail rail_electric rail_fast ship" speed="3.65" length="4.67" shape="1267.56,649.03 1268.76,649.83 1269.16,650.63 1268.76,651.43 1267.56,652.23"/>
    </edge>
    <edge id=":1325478692_15" function="internal">
        <lane id=":1325478692_15_0" index="0" disallow="tram rail_urban rail rail_electric rail_fast ship" speed="6.51" length="9.02" shape="1273.09,661.08 1272.78,658.65 1271.76,656.89 1270.02,655.82 1267.56,655.43"/>
    </edge>
    <edge id=":1325478692_16" function="internal">
        <lane id=":1325478692_16_0" index="0" disallow="tram rail_urban rail rail_electric rail_fast ship" speed="27.78" length="20.87" shape="1273.09,661.08 1273.47,640.22"/>
        <lane id=":1325478692_16_1" index="1" disallow="tram rail_urban rail rail_electric rail_fast ship" speed="27.78" length="20.87" shape="1276.29,661.14 1276.67,640.28"/>
    </edge>
    <edge id=":1325478692_18" function="internal">
        <lane id=":1325478692_18_0" index="0" disallow="tram rail_urban rail rail_electric rail_fast ship" speed="9.25" length="7.00" shape="1276.29,661.14 1277.14,655.85 1278.01,654.45"/>
    </edge>
    <edge id=":1325478692_19" function="internal">
        <lane id=":1325478692_19_0" index="0" disallow="tram rail_urban rail rail_electric rail_fast ship" speed="3.65" length="2.34" shape="1276.29,661.14 1277.11,659.95 1277.92,659.57"/>
    </edge>
    <edge id=":1325478692_22" function="internal">
        <lane id=":1325478692_22_0" index="0" disallow="tram rail_urban rail rail_electric rail_fast ship" speed="9.25" length="12.47" shape="1278.01,654.45 1279.47,652.12 1283.28,649.95 1288.58,649.34"/>
    </edge>
    <edge id=":1325478692_23" function="internal">
        <lane id=":1325478692_23_0" index="0" disallow="tram rail_urban rail rail_electric rail_fast ship" speed="3.65" length="2.34" shape="1277.92,659.57 1278.71,659.98 1279.49,661.19"/>
    </edge>
    <edge id=":1325478714_0" function="internal">
        <lane id=":1325478714_0_0" index="0" disallow="tram rail_urban rail rail_electric rail_fast ship" speed="8.96" length="18.03" shape="947.71,1366.41 944.19,1369.88 940.40,1371.38 936.35,1370.94 932.03,1368.54"/>
        <lane id=":1325478714_0_1" index="1" disallow="tram rail_urban rail rail_electric rail_fast ship" speed="7.66" length="12.88" shape="945.17,1364.47 942.65,1366.94 939.94,1368.02 937.05,1367.70 933.97,1365.99"/>
    </edge>
    <edge id=":1325478714_2" function="internal">
        <lane id=":1325478714_2_0" index="0" disallow="tram rail_urban rail rail_electric rail_fast ship" speed="3.90" length="2.58" shape="937.84,1360.89 938.46,1361.23 939.03,1361.30 939.58,1361.08 940.08,1360.59"/>
        <lane id=":1325478714_2_1" index="1" disallow="tram rail_urban rail rail_electric rail_fast ship" speed="6.08" length="7.73" shape="935.90,1363.44 937.75,1364.47 939.49,1364.66 941.11,1364.01 942.62,1362.53"/>
    </edge>
    <edge id=":1325478773_0" function="internal">
        <lane id=":1325478773_0_0" index="0" disallow="tram rail_urban rail rail_electric rail_fast ship" speed="6.85" length="9.48" shape="943.39,1067.00 946.02,1066.49 947.92,1065.33 949.07,1063.55 949.48,1061.13"/>
    </edge>
    <edge id=":1325478773_1" function="internal">
        <lane id=":1325478773_1_0" index="0" disallow="tram rail_urban rail rail_electric rail_fast ship" speed="3.65" length="4.67" shape="943.39,1067.00 944.64,1067.72 945.09,1068.49 944.74,1069.32 943.60,1070.20"/>
    </edge>
    <edge id=":1325478773_2" function="internal">
        <lane id=":1325478773_2_0" index="0" disallow="tram rail_urban rail rail_electric rail_fast ship" speed="6.32" length="9.04" shape="949.20,1075.56 948.90,1073.07 947.87,1071.35 946.10,1070.39 943.60,1070.20"/>
    </edge>
    <edge id=":1325478773_3" function="internal">
        <lane id=":1325478773_3_0" index="0" disallow="tram rail_urban rail rail_electric rail_fast ship" speed="27.78" length="14.46" shape="949.20,1075.56 949.48,1061.13"/>
        <lane id=":1325478773_3_1" index="1" disallow="tram rail_urban rail rail_electric rail_fast ship" speed="27.78" length="14.46" shape="952.40,1075.64 952.68,1061.17"/>
    </edge>
    <edge id=":1325478808_0" function="internal">
        <lane id=":1325478808_0_0" index="0" disallow="tram rail_urban rail rail_electric rail_fast ship" speed="27.78" length="14.59" shape="847.66,1137.76 834.47,1131.47"/>
        <lane id=":1325478808_0_1" index="1" disallow="tram rail_urban rail rail_electric rail_fast ship" speed="27.78" length="14.59" shape="849.02,1134.86 835.87,1128.59"/>
    </edge>
    <edge id=":1325478808_2" function="internal">
        <lane id=":1325478808_2_0" index="0" disallow="tram rail_urban rail rail_electric rail_fast ship" speed="8.54" length="5.50" shape="849.02,1134.86 845.65,1132.44 845.08,1131.21"/>
    </edge>
    <edge id=":1325478808_3" function="internal">
        <lane id=":1325478808_3_0" index="0" disallow="tram rail_urban rail rail_electric rail_fast ship" speed="3.65" length="2.34" shape="849.02,1134.86 848.27,1133.62 848.24,1132.73"/>
    </edge>
    <edge id=":1325478808_11" function="internal">